Version 4
SHEET 1 4776 1012
WIRE 3168 -896 2784 -896
WIRE 720 -880 576 -880
WIRE 832 -880 720 -880
WIRE 1280 -880 1136 -880
WIRE 1392 -880 1280 -880
WIRE 1792 -880 1648 -880
WIRE 1904 -880 1792 -880
WIRE 2352 -880 2208 -880
WIRE 2464 -880 2352 -880
WIRE 576 -848 576 -880
WIRE 1136 -848 1136 -880
WIRE 1648 -848 1648 -880
WIRE 2208 -848 2208 -880
WIRE 3168 -848 3168 -896
WIRE 3568 -848 3168 -848
WIRE 2784 -800 2784 -896
WIRE 2832 -800 2784 -800
WIRE 3104 -784 2896 -784
WIRE 3168 -784 3168 -848
WIRE 3168 -784 3104 -784
WIRE 3296 -784 3232 -784
WIRE 3392 -784 3296 -784
WIRE 784 -768 704 -768
WIRE 816 -768 784 -768
WIRE 1344 -768 1264 -768
WIRE 1376 -768 1344 -768
WIRE 1856 -768 1776 -768
WIRE 1888 -768 1856 -768
WIRE 2416 -768 2336 -768
WIRE 2448 -768 2416 -768
WIRE 2832 -768 2720 -768
WIRE 3104 -752 3104 -784
WIRE 3168 -752 3168 -784
WIRE 3232 -752 3232 -784
WIRE 3296 -752 3296 -784
WIRE 416 -736 400 -736
WIRE 496 -736 416 -736
WIRE 576 -736 576 -768
WIRE 672 -736 704 -768
WIRE 672 -736 576 -736
WIRE 768 -736 672 -736
WIRE 976 -736 960 -736
WIRE 1056 -736 976 -736
WIRE 1136 -736 1136 -768
WIRE 1232 -736 1264 -768
WIRE 1232 -736 1136 -736
WIRE 1328 -736 1232 -736
WIRE 1488 -736 1472 -736
WIRE 1568 -736 1488 -736
WIRE 1648 -736 1648 -768
WIRE 1744 -736 1776 -768
WIRE 1744 -736 1648 -736
WIRE 1840 -736 1744 -736
WIRE 2048 -736 2032 -736
WIRE 2128 -736 2048 -736
WIRE 2208 -736 2208 -768
WIRE 2304 -736 2336 -768
WIRE 2304 -736 2208 -736
WIRE 2400 -736 2304 -736
WIRE 496 -704 496 -736
WIRE 576 -704 576 -736
WIRE 672 -704 672 -736
WIRE 768 -704 768 -736
WIRE 1056 -704 1056 -736
WIRE 1136 -704 1136 -736
WIRE 1232 -704 1232 -736
WIRE 1328 -704 1328 -736
WIRE 1568 -704 1568 -736
WIRE 1648 -704 1648 -736
WIRE 1744 -704 1744 -736
WIRE 1840 -704 1840 -736
WIRE 2128 -704 2128 -736
WIRE 2208 -704 2208 -736
WIRE 2304 -704 2304 -736
WIRE 2400 -704 2400 -736
WIRE 400 -640 400 -736
WIRE 960 -640 960 -736
WIRE 1472 -640 1472 -736
WIRE 2032 -640 2032 -736
WIRE 768 -592 768 -624
WIRE 1328 -592 1328 -624
WIRE 1840 -592 1840 -624
WIRE 2400 -592 2400 -624
WIRE 3104 -528 3104 -560
WIRE 3168 -528 3168 -560
WIRE 3168 -528 3104 -528
WIRE 3232 -528 3232 -560
WIRE 3232 -528 3168 -528
WIRE 3296 -528 3296 -560
WIRE 3296 -528 3232 -528
WIRE 400 -496 400 -576
WIRE 496 -496 496 -528
WIRE 496 -496 400 -496
WIRE 576 -496 576 -528
WIRE 672 -496 672 -528
WIRE 672 -496 576 -496
WIRE 768 -496 768 -528
WIRE 768 -496 672 -496
WIRE 960 -496 960 -576
WIRE 1056 -496 1056 -528
WIRE 1056 -496 960 -496
WIRE 1136 -496 1136 -528
WIRE 1232 -496 1232 -528
WIRE 1232 -496 1136 -496
WIRE 1328 -496 1328 -528
WIRE 1328 -496 1232 -496
WIRE 1472 -496 1472 -576
WIRE 1568 -496 1568 -528
WIRE 1568 -496 1472 -496
WIRE 1648 -496 1648 -528
WIRE 1744 -496 1744 -528
WIRE 1744 -496 1648 -496
WIRE 1840 -496 1840 -528
WIRE 1840 -496 1744 -496
WIRE 2032 -496 2032 -576
WIRE 2128 -496 2128 -528
WIRE 2128 -496 2032 -496
WIRE 2208 -496 2208 -528
WIRE 2304 -496 2304 -528
WIRE 2304 -496 2208 -496
WIRE 2400 -496 2400 -528
WIRE 2400 -496 2304 -496
WIRE 704 -464 672 -496
WIRE 928 -464 704 -464
WIRE 1264 -464 1232 -496
WIRE 1424 -464 1264 -464
WIRE 1776 -464 1744 -496
WIRE 1952 -464 1776 -464
WIRE 2336 -464 2304 -496
WIRE 2496 -464 2336 -464
WIRE 3168 -448 3168 -528
WIRE 3296 -448 3168 -448
WIRE 3392 -448 3392 -784
WIRE 3392 -448 3360 -448
WIRE 576 -400 576 -496
WIRE 720 -400 576 -400
WIRE 832 -400 720 -400
WIRE 1136 -400 1136 -496
WIRE 1280 -400 1136 -400
WIRE 1392 -400 1280 -400
WIRE 1648 -400 1648 -496
WIRE 1792 -400 1648 -400
WIRE 1904 -400 1792 -400
WIRE 2208 -400 2208 -496
WIRE 2352 -400 2208 -400
WIRE 2464 -400 2352 -400
WIRE 3168 -384 3168 -448
WIRE 3200 -384 3168 -384
WIRE 928 -368 928 -464
WIRE 1424 -368 1424 -464
WIRE 1952 -368 1952 -464
WIRE 2496 -368 2496 -464
WIRE 3392 -368 3392 -448
WIRE 3392 -368 3264 -368
WIRE 3568 -368 3392 -368
WIRE 3200 -352 3120 -352
WIRE 1184 -288 928 -288
WIRE 1424 -288 1184 -288
WIRE 1952 -288 1424 -288
WIRE 2496 -288 1952 -288
WIRE 2880 -240 2880 -304
WIRE 2112 -224 2048 -224
WIRE 2256 -224 2176 -224
WIRE 3152 -192 3120 -192
WIRE 3392 -192 3392 -368
WIRE 3392 -192 3344 -192
WIRE 1184 -128 1184 -288
WIRE 1248 -128 1184 -128
WIRE 1376 -128 1312 -128
WIRE 3120 -128 3120 -192
WIRE 3152 -128 3120 -128
WIRE 3376 -128 3344 -128
WIRE 1712 -112 1600 -112
WIRE 2560 -112 2528 -112
WIRE 368 -96 304 -96
WIRE 496 -96 448 -96
WIRE 2640 -96 2624 -96
WIRE 2688 -96 2640 -96
WIRE 2880 -96 2880 -160
WIRE 2880 -96 2768 -96
WIRE 1600 -80 1600 -112
WIRE 2112 -80 2080 -80
WIRE 2256 -80 2256 -224
WIRE 2256 -80 2192 -80
WIRE 2336 -80 2256 -80
WIRE 2560 -80 2336 -80
WIRE 3152 -64 3120 -64
WIRE 3376 -64 3376 -128
WIRE 3376 -64 3344 -64
WIRE 496 -48 496 -96
WIRE 576 -48 496 -48
WIRE 736 -32 736 -96
WIRE 864 -32 864 -96
WIRE 2336 -16 2336 -80
WIRE 368 0 304 0
WIRE 496 0 496 -48
WIRE 496 0 448 0
WIRE 3120 0 3120 -64
WIRE 3152 0 3120 0
WIRE 3408 0 3344 0
WIRE 3520 0 3408 0
WIRE 2112 16 2080 16
WIRE 2256 16 2256 -80
WIRE 2256 16 2192 16
WIRE 1184 32 1184 -128
WIRE 1248 32 1184 32
WIRE 2448 32 2400 32
WIRE 2528 32 2528 -112
WIRE 2688 32 2528 32
WIRE 2880 32 2880 -96
WIRE 2880 32 2768 32
WIRE 1376 48 1376 -128
WIRE 1376 48 1312 48
WIRE 1440 48 1376 48
WIRE 1600 48 1600 0
WIRE 1600 48 1520 48
WIRE 1696 48 1600 48
WIRE 1808 48 1696 48
WIRE 1248 64 1168 64
WIRE 1600 80 1600 48
WIRE 1696 80 1696 48
WIRE 1808 80 1808 48
WIRE 2528 80 2528 32
WIRE 2576 80 2528 80
WIRE 2640 80 2640 -96
WIRE 2880 80 2880 32
WIRE 1168 96 1168 64
WIRE 2112 112 2080 112
WIRE 2256 112 2256 16
WIRE 2256 112 2192 112
WIRE 2400 112 2400 32
WIRE 3120 112 3120 0
WIRE 3312 112 3120 112
WIRE 3408 112 3408 0
WIRE 3408 112 3376 112
WIRE 1600 192 1600 160
WIRE 1696 192 1696 160
WIRE 1696 192 1600 192
WIRE 3120 192 3120 112
WIRE 3200 192 3120 192
WIRE 2112 208 2080 208
WIRE 2256 208 2256 112
WIRE 2256 208 2192 208
WIRE 3408 208 3408 112
WIRE 3408 208 3264 208
WIRE 3200 224 3120 224
WIRE 1600 256 1600 192
FLAG 416 -736 +15V
FLAG 400 -496 -15V
FLAG 736 48 0
FLAG 864 48 0
FLAG 736 -96 +15V
FLAG 864 -96 -15V
FLAG 720 -880 Pos_pw_source
FLAG 784 -768 Pos_sen_1
FLAG 720 -400 Virtual_ground
FLAG 976 -736 +15V
FLAG 960 -496 -15V
FLAG 1280 -880 Pos_pw_source
FLAG 1344 -768 Pos_sen_2
FLAG 1280 -400 Virtual_ground
FLAG 1488 -736 +15V
FLAG 1472 -496 -15V
FLAG 1792 -880 Pos_pw_source
FLAG 1856 -768 Pos_sen_3
FLAG 1792 -400 Virtual_ground
FLAG 2048 -736 +15V
FLAG 2032 -496 -15V
FLAG 2352 -880 Pos_pw_source
FLAG 2416 -768 Pos_sen_4
FLAG 2352 -400 Virtual_ground
FLAG 2880 80 Pos_pw_source
FLAG 2080 -80 Pos_sen_1
FLAG 2080 16 Pos_sen_2
FLAG 2080 112 Pos_sen_3
FLAG 2080 208 Pos_sen_4
FLAG 2336 48 0
FLAG 2336 -80 Vz_pos
FLAG 2592 -128 +15V
FLAG 2592 -64 -15V
FLAG 2880 -304 +15V
FLAG 1712 -112 Virtual_ground
FLAG 576 -48 +2V
FLAG 2048 -224 +2V
FLAG 1184 -288 Neg_sen
FLAG 1600 256 -15V
FLAG 1280 16 +15V
FLAG 1280 80 -15V
FLAG 1168 96 0
FLAG 2400 112 Virtual_ground
FLAG 3232 -400 +15V
FLAG 3232 -336 -15V
FLAG 3120 -352 Neg_sen
FLAG 3568 -368 Out_n7V
FLAG 2864 -816 +15V
FLAG 2864 -752 -15V
FLAG 2720 -768 Vz_pos
FLAG 3568 -848 Out_p7V
FLAG 3232 176 +15V
FLAG 3232 240 -15V
FLAG 3520 0 Out_ADC_ref
FLAG 1808 144 0
FLAG 304 -96 +15V
FLAG 304 0 -15V
FLAG 3120 224 Neg_sen
DATAFLAG 2656 -96 ""
DATAFLAG 2464 -80 ""
DATAFLAG 2848 32 ""
DATAFLAG 800 112 "I(V1)"
DATAFLAG 800 160 "I(V1)*V(+15v)*2"
DATAFLAG 736 -736 ""
DATAFLAG 2384 -736 ""
DATAFLAG 1312 -736 ""
DATAFLAG 1808 -736 ""
DATAFLAG 1632 -288 ""
DATAFLAG 832 -464 ""
DATAFLAG 3488 -848 ""
DATAFLAG 3488 -368 ""
DATAFLAG 1376 48 ""
DATAFLAG 3232 -528 ""
DATAFLAG 1696 -80 "I(R_pcb_trace)"
DATAFLAG 1472 0 "I(R28)"
DATAFLAG 2752 -768 ""
DATAFLAG 3440 0 ""
DATAFLAG 1728 48 ""
DATAFLAG 528 -48 ""
DATAFLAG 2720 -160 "I(R22)"
DATAFLAG 448 -816 "Ix(U1:H+)"
SYMBOL voltage 736 -48 R0
WINDOW 123 0 0 Left 0
WINDOW 39 24 44 Left 2
SYMATTR InstName V1
SYMATTR Value 15
SYMBOL voltage 864 64 R180
WINDOW 123 0 0 Left 0
WINDOW 39 24 68 Left 2
SYMATTR InstName V2
SYMATTR Value 15
SYMBOL References\\ADR1399E 560 -624 R0
SYMATTR InstName U1
SYMBOL cap 384 -640 R0
SYMATTR InstName C1
SYMATTR Value 1µ
SYMBOL res 560 -864 R0
SYMATTR InstName R7
SYMATTR Value 1.1k
SYMBOL res 2784 16 R90
WINDOW 0 0 56 VBottom 2
WINDOW 3 32 56 VTop 2
SYMATTR InstName R9
SYMATTR Value 5k
SYMBOL res 2544 16 R90
WINDOW 0 0 56 VBottom 2
WINDOW 3 32 56 VTop 2
SYMATTR InstName R10
SYMATTR Value 10k
SYMBOL res 752 -720 R0
SYMATTR InstName R1
SYMATTR Value 5
SYMBOL cap 752 -592 R0
SYMATTR InstName C2
SYMATTR Value 1µ
SYMBOL References\\ADR1399E 1120 -624 R0
SYMATTR InstName U2
SYMBOL cap 944 -640 R0
SYMATTR InstName C4
SYMATTR Value 1µ
SYMBOL res 1120 -864 R0
SYMATTR InstName R2
SYMATTR Value 1.1k
SYMBOL res 1312 -720 R0
SYMATTR InstName R3
SYMATTR Value 5
SYMBOL cap 1312 -592 R0
SYMATTR InstName C5
SYMATTR Value 1µ
SYMBOL References\\ADR1399E 1632 -624 R0
SYMATTR InstName U3
SYMBOL cap 1456 -640 R0
SYMATTR InstName C6
SYMATTR Value 1µ
SYMBOL res 1632 -864 R0
SYMATTR InstName R4
SYMATTR Value 1.1k
SYMBOL res 1824 -720 R0
SYMATTR InstName R5
SYMATTR Value 5
SYMBOL cap 1824 -592 R0
SYMATTR InstName C7
SYMATTR Value 1µ
SYMBOL References\\ADR1399E 2192 -624 R0
SYMATTR InstName U4
SYMBOL cap 2016 -640 R0
SYMATTR InstName C8
SYMATTR Value 1µ
SYMBOL res 2192 -864 R0
SYMATTR InstName R6
SYMATTR Value 1.1k
SYMBOL res 2384 -720 R0
SYMATTR InstName R8
SYMATTR Value 5
SYMBOL cap 2384 -592 R0
SYMATTR InstName C9
SYMATTR Value 1µ
SYMBOL res 2208 -96 R90
WINDOW 0 0 56 VBottom 2
WINDOW 3 32 56 VTop 2
SYMATTR InstName R16
SYMATTR Value 2k
SYMBOL res 2208 0 R90
WINDOW 0 0 56 VBottom 2
WINDOW 3 32 56 VTop 2
SYMATTR InstName R17
SYMATTR Value 2k
SYMBOL res 2208 96 R90
WINDOW 0 0 56 VBottom 2
WINDOW 3 32 56 VTop 2
SYMATTR InstName R18
SYMATTR Value 2k
SYMBOL res 2208 192 R90
WINDOW 0 0 56 VBottom 2
WINDOW 3 32 56 VTop 2
SYMATTR InstName R19
SYMATTR Value 2k
SYMBOL cap 2320 -16 R0
SYMATTR InstName C14
SYMATTR Value 2µ
SYMBOL res 2784 -112 R90
WINDOW 0 0 56 VBottom 2
WINDOW 3 32 56 VTop 2
SYMATTR InstName R22
SYMATTR Value 360
SYMBOL diode 2112 -208 R270
WINDOW 0 32 32 VTop 2
WINDOW 3 0 32 VBottom 2
SYMATTR InstName D1
SYMATTR Value BAV199HM
SYMBOL Misc\\LT5400-1 3200 -656 R90
SYMATTR InstName U7
SYMBOL res 912 -384 R0
SYMATTR InstName R11
SYMATTR Value 100R
SYMBOL res 1408 -384 R0
SYMATTR InstName R23
SYMATTR Value 100R
SYMBOL res 1936 -384 R0
SYMATTR InstName R24
SYMATTR Value 100R
SYMBOL res 2480 -384 R0
SYMATTR InstName R25
SYMATTR Value 100R
SYMBOL res 1536 32 R90
WINDOW 0 0 56 VBottom 2
WINDOW 3 32 56 VTop 2
SYMATTR InstName R28
SYMATTR Value 1.1k
SYMBOL res 1584 -96 R0
SYMATTR InstName R_PCB_TRACE
SYMATTR Value 0.01
SYMBOL cap 2640 64 R90
WINDOW 0 0 32 VBottom 2
WINDOW 3 32 32 VTop 2
SYMATTR InstName C3
SYMATTR Value 100p
SYMBOL cap 1312 -144 R90
WINDOW 0 0 32 VBottom 2
WINDOW 3 32 32 VTop 2
SYMATTR InstName C15
SYMATTR Value 100p
SYMBOL cap 3360 -464 R90
WINDOW 0 0 32 VBottom 2
WINDOW 3 32 32 VTop 2
SYMATTR InstName C16
SYMATTR Value 100p
SYMBOL OpAmps\\LT1884 2864 -848 R0
SYMATTR InstName U10
SYMBOL OpAmps\\LT1884 3232 -432 R0
SYMATTR InstName U11
SYMBOL OpAmps\\LT1884 1280 -16 R0
SYMATTR InstName U8
SYMBOL OpAmps\\LT1884 2592 -160 R0
SYMATTR InstName U9
SYMBOL res 1584 64 R0
SYMATTR InstName R29
SYMATTR Value 2.2k
SYMBOL OpAmps\\LT1884 3232 144 R0
SYMATTR InstName U13
SYMBOL cap 3376 96 R90
WINDOW 0 0 32 VBottom 2
WINDOW 3 32 32 VTop 2
SYMATTR InstName C18
SYMATTR Value 100p
SYMBOL Misc\\LT5400-6 3248 -96 R0
SYMATTR InstName U12
SYMBOL cap 1792 80 R0
SYMATTR InstName C19
SYMATTR Value 2µ
SYMBOL res 1680 64 R0
SYMATTR InstName R12
SYMATTR Value 2.2k
SYMBOL res 464 -16 R90
WINDOW 0 0 56 VBottom 2
WINDOW 3 32 56 VTop 2
SYMATTR InstName R13
SYMATTR Value 27K
SYMBOL res 464 -112 R90
WINDOW 0 0 56 VBottom 2
WINDOW 3 32 56 VTop 2
SYMATTR InstName R14
SYMATTR Value 18.2K
SYMBOL res 2896 -144 R180
WINDOW 0 36 76 Left 2
WINDOW 3 36 40 Left 2
SYMATTR InstName R15
SYMATTR Value 328
TEXT 488 104 Left 2 !.tran 1
